Circuit: * Z:\home\maxgenson\Documents\MMS Synth Project\ACG 102 (mHz oscillator)\LTSpice_Simulation\Draft1.asc

Fatal Error: V4: Could not open wavefile: ~/music/prolab temp/kicad intro.wav

